AlOH2
  MatStudio         3D                             0

  5  4  0  0  0  0  0  0  0  0999 V2000
   -0.0464    0.6767   -0.3963 Al  0  1  0  0  0  0  0  0  0  0
   -1.0727    1.4676    0.9239 O   0  5  0  0  0  0  0  0  0  0
   -0.5449    2.3680    1.3152 H   0  0  0  0  0  0  0  0  0  0
    0.9780   -0.1144   -1.7180 O   0  5  0  0  0  0  0  0  0  0
    1.8022    0.5754   -2.0113 H   0  0  0  0  0  0  0  0  0  0
  1  2  1  0  0  0
  2  3  1  0  0  0
  1  4  1  0  0  0
  4  5  1  0  0  0
M  END
