AlX
  MatStudio         3D                             0

  5  4  0  0  0  0  0  0  0  0999 V2000
    0.0647    0.0028    0.0466 Al  0  1  0  0  0  0  0  0  0  0
    1.2979   -0.2720   -1.3455 C   0  5  0  0  0  0  0  0  0  0
    1.3981   -1.3892   -1.5491 H   0  0  0  0  0  0  0  0  0  0
    2.3123    0.1517   -1.0434 H   0  0  0  0  0  0  0  0  0  0
    0.9314    0.2546   -2.2877 H   0  0  0  0  0  0  0  0  0  0
  1  2  1  0  0  0
  2  3  1  0  0  0
  2  4  1  0  0  0
  2  5  1  0  0  0
M  END
