OAlOH
  MatStudio         3D                             0

  4  3  0  0  0  0  0  0  0  0999 V2000
    1.2382    0.3838    0.4838 Al  0  1  0  0  0  0  0  0  0  0
    2.3951   -0.0947    1.8460 O   0  6  0  0  0  0  0  0  0  0
    0.0783    0.8637   -0.8759 O   0  5  0  0  0  0  0  0  0  0
    0.2664    0.2341   -1.7689 H   0  0  0  0  0  0  0  0  0  0
  1  2  1  0  0  0
  1  3  1  0  0  0
  3  4  1  0  0  0
M  END
