OAlX
  MatStudio         3D                             0

  6  5  0  0  0  0  0  0  0  0999 V2000
    1.3597   -0.3655    0.9390 Al  0  1  0  0  0  0  0  0  0  0
    0.2203   -1.2545   -0.2636 C   0  5  0  0  0  0  0  0  0  0
    0.2392   -0.7200   -1.2702 H   0  0  0  0  0  0  0  0  0  0
    0.5737   -2.3301   -0.3977 H   0  0  0  0  0  0  0  0  0  0
   -0.8429   -1.2523    0.1479 H   0  0  0  0  0  0  0  0  0  0
    2.4807    0.5106    2.1214 O   0  6  0  0  0  0  0  0  0  0
  1  2  1  0  0  0
  2  3  1  0  0  0
  2  4  1  0  0  0
  2  5  1  0  0  0
  1  6  1  0  0  0
M  END
